"MOM Experiment"
1 1 1 0 0 0
#"file_name",  output_freq,  "output_freq_units",  file_format,  "time_axis_units",  "time_axis_name"[,  new_file_freq,  "new_file_freq_units"[,  "start_time"[,  file_duration,  "file_duration_units"]]]
# FILE NAME                      # FREQ # PER  #FMT # UNITS #AXISNAME #file freq #file freq units
#===========================================================================
"output_constant",                     -1,"days",1,"days","Time"
"output_prognostic_%4yr_%3dy",          1,"days",1,"hours","Time",1,"days"
"output_prognostic_zlev_%4yr_%3dy",     1,"days",1,"days","Time",1,"days"
"output_surface_fluxes_%4yr_%3dy",      1,"days",1,"days","Time",1,"days"
"output_prognostic_tavg_%4yr_%3dy",     1,"days",1,"days","Time",1,"days"
"output_marbl_%4yr_%3dy",               1,"days",1,"days","Time",1,"days"
"output_marbl2_%4yr_%3dy",              1,"days",1,"days","Time",1,"days"

#===========================================================================
#This is the field section of the diag_table.
#===========================================================================
#  FORMAT FOR FIELD ENTRIES (not all input values are used)
#  ------------------------
#
#"module_name", "field_name", "output_name", "file_name" "time_sampling", time_avg, "other_opts", packing
#
#time_avg = .true. or .false.
#
#packing  = 1  double precision
#         = 2  float
#         = 4  packed 16-bit integers
#         = 8  packed 1-byte (not tested?)
#===========================================================================

# Time invariant fields:
#=======================
#"module_name","field_name" , "output_name" ,"file_name",       "all",time_avg,"other_opts",packing
#===============================================================================================
"ocean_model", "geolon",      "geolon",      "output_constant", "all", ".false.", "none", 2
"ocean_model", "geolat",      "geolat",      "output_constant", "all", ".false.", "none", 2
"ocean_model", "geolon_u",    "geolon_u",    "output_constant", "all", ".false.", "none", 2
"ocean_model", "geolat_u",    "geolat_u",    "output_constant", "all", ".false.", "none", 2
"ocean_model", "geolon_v",    "geolon_v",    "output_constant", "all", ".false.", "none", 2
"ocean_model", "geolat_v",    "geolat_v",    "output_constant", "all", ".false.", "none", 2
"ocean_model", "deptho",      "deptho",      "output_constant", "all", ".false.", "none", 2
"ocean_model", "wet",         "wet",         "output_constant", "all", ".false.", "none", 2
"ocean_model", "wet_u",       "wet_u",       "output_constant", "all", ".false.", "none", 2
"ocean_model", "wet_v",       "wet_v",       "output_constant", "all", ".false.", "none", 2
"ocean_model", "Coriolis",    "Coriolis",    "output_constant", "all", ".false.", "none", 2
"ocean_model", "area_t",      "area_t",      "output_constant", "all", ".false.", "none", 2
"ocean_model", "area_u",      "area_u",      "output_constant", "all", ".false.", "none", 2
"ocean_model", "area_v",      "area_v",      "output_constant", "all", ".false.", "none", 2


# Prognostic Ocean fields (3 varieties):
#=========================
# SNAPSHOT
"ocean_model", "geolon",      "geolon",      "output_prognostic_%4yr_%3dy", "all", ".false.", "none", 2
"ocean_model", "geolat",      "geolat",      "output_prognostic_%4yr_%3dy", "all", ".false.", "none", 2
"ocean_model","u","u","output_prognostic_%4yr_%3dy","all",.false.,"none",2
"ocean_model","v","v","output_prognostic_%4yr_%3dy","all",.false.,"none",2
"ocean_model","h","h","output_prognostic_%4yr_%3dy","all",.false.,"none",1
"ocean_model","e","e","output_prognostic_%4yr_%3dy","all",.false.,"none",2
"ocean_model","temp","temp","output_prognostic_%4yr_%3dy","all",.false.,"none",2
"ocean_model","salt","salt","output_prognostic_%4yr_%3dy","all",.false.,"none",2

# TIME AVERAGE
"ocean_model","u","u","output_prognostic_tavg_%4yr_%3dy","all",.true.,"none",2
"ocean_model","v","v","output_prognostic_tavg_%4yr_%3dy","all",.true.,"none",2
# no point in time-average h
"ocean_model","e","e","output_prognostic_tavg_%4yr_%3dy","all",.true.,"none",2
"ocean_model","temp","temp","output_prognostic_tavg_%4yr_%3dy","all",.true.,"none",2
"ocean_model","salt","salt","output_prognostic_tavg_%4yr_%3dy","all",.true.,"none",2

# SNAPSHOT, REMAPPED ONTO Z-LEVEL COORDS:
"ocean_model_z","u","u","output_prognostic_zlev_%4yr_%3dy","all",.false.,"none",2
"ocean_model_z","v","v","output_prognostic_zlev_%4yr_%3dy","all",.false.,"none",2
"ocean_model_z","temp","temp","output_prognostic_zlev_%4yr_%3dy","all",.false.,"none",2
"ocean_model_z","salt","salt","output_prognostic_zlev_%4yr_%3dy","all",.false.,"none",2

# Auxilary (MARBL) Tracers:
#==================

# SNAPSHOT
#"ocean_model","vintage","vintage","output_prognostic_%4yr_%3dy","all",.false.,"none",2
#"ocean_model","age","age","output_prognostic_%4yr_%3dy","all",.false.,"none",2
"ocean_model","PO4","PO4","output_prognostic_%4yr_%3dy","all",.false.,"none",2
"ocean_model","NO3","NO3","output_prognostic_%4yr_%3dy","all",.false.,"none",2
"ocean_model","SiO3","SiO3","output_prognostic_%4yr_%3dy","all",.false.,"none",2
"ocean_model","NH4","NH4","output_prognostic_%4yr_%3dy","all",.false.,"none",2
"ocean_model","Fe","Fe","output_prognostic_%4yr_%3dy","all",.false.,"none",2
"ocean_model","Lig","Lig","output_prognostic_%4yr_%3dy","all",.false.,"none",2
"ocean_model","O2","O2","output_prognostic_%4yr_%3dy","all",.false.,"none",2
"ocean_model","DIC","DIC","output_prognostic_%4yr_%3dy","all",.false.,"none",2
"ocean_model","DIC_ALT_CO2","DIC_ALT_CO2","output_prognostic_%4yr_%3dy","all",.false.,"none",2
"ocean_model","ALK","ALK","output_prognostic_%4yr_%3dy","all",.false.,"none",2
"ocean_model","ALK_ALT_CO2","ALK_ALT_CO2","output_prognostic_%4yr_%3dy","all",.false.,"none",2
"ocean_model","DOC","DOC","output_prognostic_%4yr_%3dy","all",.false.,"none",2
"ocean_model","DON","DON","output_prognostic_%4yr_%3dy","all",.false.,"none",2
"ocean_model","DOP","DOP","output_prognostic_%4yr_%3dy","all",.false.,"none",2
"ocean_model","DOPr","DOPr","output_prognostic_%4yr_%3dy","all",.false.,"none",2
"ocean_model","DONr","DONr","output_prognostic_%4yr_%3dy","all",.false.,"none",2
"ocean_model","DOCr","DOCr","output_prognostic_%4yr_%3dy","all",.false.,"none",2
"ocean_model","microzooC","microzooC","output_prognostic_%4yr_%3dy","all",.false.,"none",2
"ocean_model","mesozooC","mesozooC","output_prognostic_%4yr_%3dy","all",.false.,"none",2
"ocean_model","spChl","spChl","output_prognostic_%4yr_%3dy","all",.false.,"none",2
"ocean_model","spC","spC","output_prognostic_%4yr_%3dy","all",.false.,"none",2
"ocean_model","spP","spP","output_prognostic_%4yr_%3dy","all",.false.,"none",2
"ocean_model","spFe","spFe","output_prognostic_%4yr_%3dy","all",.false.,"none",2
"ocean_model","coccoChl","coccoChl","output_prognostic_%4yr_%3dy","all",.false.,"none",2
"ocean_model","coccoC","coccoC","output_prognostic_%4yr_%3dy","all",.false.,"none",2
"ocean_model","coccoP","coccoP","output_prognostic_%4yr_%3dy","all",.false.,"none",2
"ocean_model","coccoFe","coccoFe","output_prognostic_%4yr_%3dy","all",.false.,"none",2
"ocean_model","coccoCaCO3","coccoCaCO3","output_prognostic_%4yr_%3dy","all",.false.,"none",2
"ocean_model","diatChl","diatChl","output_prognostic_%4yr_%3dy","all",.false.,"none",2
"ocean_model","diatC","diatC","output_prognostic_%4yr_%3dy","all",.false.,"none",2
"ocean_model","diatP","diatP","output_prognostic_%4yr_%3dy","all",.false.,"none",2
"ocean_model","diatFe","diatFe","output_prognostic_%4yr_%3dy","all",.false.,"none",2
"ocean_model","diatSi","diatSi","output_prognostic_%4yr_%3dy","all",.false.,"none",2
"ocean_model","diazChl","diazChl","output_prognostic_%4yr_%3dy","all",.false.,"none",2
"ocean_model","diazC","diazC","output_prognostic_%4yr_%3dy","all",.false.,"none",2
"ocean_model","diazP","diazP","output_prognostic_%4yr_%3dy","all",.false.,"none",2
"ocean_model","diazFe","diazFe","output_prognostic_%4yr_%3dy","all",.false.,"none",2

# TIME-AVERAGE
"ocean_model_z","PO4","PO4","output_prognostic_tavg_%4yr_%3dy","all",.true.,"none",2
"ocean_model_z","NO3","NO3","output_prognostic_tavg_%4yr_%3dy","all",.true.,"none",2
"ocean_model","SiO3","SiO3","output_prognostic_tavg_%4yr_%3dy","all",.true.,"none",2
"ocean_model","NH4","NH4","output_prognostic_tavg_%4yr_%3dy","all",.true.,"none",2
"ocean_model","Fe","Fe","output_prognostic_tavg_%4yr_%3dy","all",.true.,"none",2
"ocean_model","Lig","Lig","output_prognostic_tavg_%4yr_%3dy","all",.true.,"none",2
"ocean_model","O2","O2","output_prognostic_tavg_%4yr_%3dy","all",.true.,"none",2
"ocean_model","DIC","DIC","output_prognostic_tavg_%4yr_%3dy","all",.true.,"none",2
"ocean_model","DIC_ALT_CO2","DIC_ALT_CO2","output_prognostic_tavg_%4yr_%3dy","all",.true.,"none",2
"ocean_model","ALK","ALK","output_prognostic_tavg_%4yr_%3dy","all",.true.,"none",2
"ocean_model","ALK_ALT_CO2","ALK_ALT_CO2","output_prognostic_tavg_%4yr_%3dy","all",.true.,"none",2
"ocean_model","DOC","DOC","output_prognostic_tavg_%4yr_%3dy","all",.true.,"none",2
"ocean_model","DON","DON","output_prognostic_tavg_%4yr_%3dy","all",.true.,"none",2
"ocean_model","DOP","DOP","output_prognostic_tavg_%4yr_%3dy","all",.true.,"none",2
"ocean_model","DOPr","DOPr","output_prognostic_tavg_%4yr_%3dy","all",.true.,"none",2
"ocean_model","DONr","DONr","output_prognostic_tavg_%4yr_%3dy","all",.true.,"none",2
"ocean_model","DOCr","DOCr","output_prognostic_tavg_%4yr_%3dy","all",.true.,"none",2
"ocean_model","microzooC","microzooC","output_prognostic_tavg_%4yr_%3dy","all",.true.,"none",2
"ocean_model","mesozooC","mesozooC","output_prognostic_tavg_%4yr_%3dy","all",.true.,"none",2
"ocean_model","spChl","spChl","output_prognostic_tavg_%4yr_%3dy","all",.true.,"none",2
"ocean_model","spC","spC","output_prognostic_tavg_%4yr_%3dy","all",.true.,"none",2
"ocean_model","spP","spP","output_prognostic_tavg_%4yr_%3dy","all",.true.,"none",2
"ocean_model","spFe","spFe","output_prognostic_tavg_%4yr_%3dy","all",.true.,"none",2
"ocean_model","coccoChl","coccoChl","output_prognostic_tavg_%4yr_%3dy","all",.true.,"none",2
"ocean_model","coccoC","coccoC","output_prognostic_tavg_%4yr_%3dy","all",.true.,"none",2
"ocean_model","coccoP","coccoP","output_prognostic_tavg_%4yr_%3dy","all",.true.,"none",2
"ocean_model","coccoFe","coccoFe","output_prognostic_tavg_%4yr_%3dy","all",.true.,"none",2
"ocean_model","coccoCaCO3","coccoCaCO3","output_prognostic_tavg_%4yr_%3dy","all",.true.,"none",2
"ocean_model","diatChl","diatChl","output_prognostic_tavg_%4yr_%3dy","all",.true.,"none",2
"ocean_model","diatC","diatC","output_prognostic_tavg_%4yr_%3dy","all",.true.,"none",2
"ocean_model","diatP","diatP","output_prognostic_tavg_%4yr_%3dy","all",.true.,"none",2
"ocean_model","diatFe","diatFe","output_prognostic_tavg_%4yr_%3dy","all",.true.,"none",2
"ocean_model","diatSi","diatSi","output_prognostic_tavg_%4yr_%3dy","all",.true.,"none",2
"ocean_model","diazChl","diazChl","output_prognostic_tavg_%4yr_%3dy","all",.true.,"none",2
"ocean_model","diazC","diazC","output_prognostic_tavg_%4yr_%3dy","all",.true.,"none",2
"ocean_model","diazP","diazP","output_prognostic_tavg_%4yr_%3dy","all",.true.,"none",2
"ocean_model","diazFe","diazFe","output_prognostic_tavg_%4yr_%3dy","all",.true.,"none",2

# SNAPSHOT, REMAPPED ONTO Z-LEVEL COORDS:
"ocean_model_z","PO4","PO4","output_prognostic_zlev_%4yr_%3dy","all",.false.,"none",2
"ocean_model_z","NO3","NO3","output_prognostic_zlev_%4yr_%3dy","all",.false.,"none",2
"ocean_model_z","SiO3","SiO3","output_prognostic_zlev_%4yr_%3dy","all",.false.,"none",2
"ocean_model_z","NH4","NH4","output_prognostic_zlev_%4yr_%3dy","all",.false.,"none",2
"ocean_model_z","Fe","Fe","output_prognostic_zlev_%4yr_%3dy","all",.false.,"none",2
"ocean_model_z","Lig","Lig","output_prognostic_zlev_%4yr_%3dy","all",.false.,"none",2
"ocean_model_z","O2","O2","output_prognostic_zlev_%4yr_%3dy","all",.false.,"none",2
"ocean_model_z","DIC","DIC","output_prognostic_zlev_%4yr_%3dy","all",.false.,"none",2
"ocean_model_z","DIC_ALT_CO2","DIC_ALT_CO2","output_prognostic_zlev_%4yr_%3dy","all",.false.,"none",2
"ocean_model_z","ALK","ALK","output_prognostic_zlev_%4yr_%3dy","all",.false.,"none",2
"ocean_model_z","ALK_ALT_CO2","ALK_ALT_CO2","output_prognostic_zlev_%4yr_%3dy","all",.false.,"none",2
"ocean_model_z","DOC","DOC","output_prognostic_zlev_%4yr_%3dy","all",.false.,"none",2
"ocean_model_z","DON","DON","output_prognostic_zlev_%4yr_%3dy","all",.false.,"none",2
"ocean_model_z","DOP","DOP","output_prognostic_zlev_%4yr_%3dy","all",.false.,"none",2
"ocean_model_z","DOPr","DOPr","output_prognostic_zlev_%4yr_%3dy","all",.false.,"none",2
"ocean_model_z","DONr","DONr","output_prognostic_zlev_%4yr_%3dy","all",.false.,"none",2
"ocean_model_z","DOCr","DOCr","output_prognostic_zlev_%4yr_%3dy","all",.false.,"none",2
"ocean_model_z","microzooC","microzooC","output_prognostic_zlev_%4yr_%3dy","all",.false.,"none",2
"ocean_model_z","mesozooC","mesozooC","output_prognostic_zlev_%4yr_%3dy","all",.false.,"none",2
"ocean_model_z","spChl","spChl","output_prognostic_zlev_%4yr_%3dy","all",.false.,"none",2
"ocean_model_z","spC","spC","output_prognostic_zlev_%4yr_%3dy","all",.false.,"none",2
"ocean_model_z","spP","spP","output_prognostic_zlev_%4yr_%3dy","all",.false.,"none",2
"ocean_model_z","spFe","spFe","output_prognostic_zlev_%4yr_%3dy","all",.false.,"none",2
"ocean_model_z","coccoChl","coccoChl","output_prognostic_zlev_%4yr_%3dy","all",.false.,"none",2
"ocean_model_z","coccoC","coccoC","output_prognostic_zlev_%4yr_%3dy","all",.false.,"none",2
"ocean_model_z","coccoP","coccoP","output_prognostic_zlev_%4yr_%3dy","all",.false.,"none",2
"ocean_model_z","coccoFe","coccoFe","output_prognostic_zlev_%4yr_%3dy","all",.false.,"none",2
"ocean_model_z","coccoCaCO3","coccoCaCO3","output_prognostic_zlev_%4yr_%3dy","all",.false.,"none",2
"ocean_model_z","diatChl","diatChl","output_prognostic_zlev_%4yr_%3dy","all",.false.,"none",2
"ocean_model_z","diatC","diatC","output_prognostic_zlev_%4yr_%3dy","all",.false.,"none",2
"ocean_model_z","diatP","diatP","output_prognostic_zlev_%4yr_%3dy","all",.false.,"none",2
"ocean_model_z","diatFe","diatFe","output_prognostic_zlev_%4yr_%3dy","all",.false.,"none",2
"ocean_model_z","diatSi","diatSi","output_prognostic_zlev_%4yr_%3dy","all",.false.,"none",2
"ocean_model_z","diazChl","diazChl","output_prognostic_zlev_%4yr_%3dy","all",.false.,"none",2
"ocean_model_z","diazC","diazC","output_prognostic_zlev_%4yr_%3dy","all",.false.,"none",2
"ocean_model_z","diazP","diazP","output_prognostic_zlev_%4yr_%3dy","all",.false.,"none",2
"ocean_model_z","diazFe","diazFe","output_prognostic_zlev_%4yr_%3dy","all",.false.,"none",2


# Continuity Equation Terms:
#===========================

# Continuity Equation Terms In Pure Potential Density Coordiantes:
#=================================================================

#
# Tracer Fluxes:
#==================


# Momentum Balance Terms:
#=======================

# Barotropic Momentum Balance Terms:
# (only available with split time stepping.)
#===========================================
#
# Viscosities and diffusivities:
#===============================
#
# Kinetic Energy Balance Terms:
#=============================
#
# Mixed Layer TKE Budget Terms:
#===========================
#
# Surface Forcing:
#=================

# MARBL diagnostics:
#===================
"ocean_model", "rsdoabsorb", "rsdoabsorb", "output_marbl_%4yr_%3dy", "all", .false., "none", 2
"ocean_model", "ECOSYS_IFRAC", "ECOSYS_IFRAC", "output_marbl_%4yr_%3dy", "all", .false., "none", 2
"ocean_model", "ECOSYS_XKW", "ECOSYS_XKW", "output_marbl_%4yr_%3dy", "all", .false., "none", 2
"ocean_model", "ECOSYS_ATM_PRESS", "ECOSYS_ATM_PRESS", "output_marbl_%4yr_%3dy", "all", .false., "none", 2
#"ocean_model", "PV_O2", "PV_O2", "output_marbl_%4yr_%3dy", "all", .false., "none", 2
"ocean_model", "SCHMIDT_O2", "SCHMIDT_O2", "output_marbl_%4yr_%3dy", "all", .false., "none", 2
"ocean_model", "O2SAT", "O2SAT", "output_marbl_%4yr_%3dy", "all", .false., "none", 2
"ocean_model", "CO2STAR", "CO2STAR", "output_marbl_%4yr_%3dy", "all", .false., "none", 2
"ocean_model", "DCO2STAR", "DCO2STAR", "output_marbl_%4yr_%3dy", "all", .false., "none", 2
"ocean_model", "pCO2SURF", "pCO2SURF", "output_marbl_%4yr_%3dy", "all", .false., "none", 2
"ocean_model", "DpCO2", "DpCO2", "output_marbl_%4yr_%3dy", "all", .false., "none", 2
#"ocean_model", "PV_CO2", "PV_CO2", "output_marbl_%4yr_%3dy", "all", .false., "none", 2
"ocean_model", "SCHMIDT_CO2", "SCHMIDT_CO2", "output_marbl_%4yr_%3dy", "all", .false., "none", 2
"ocean_model", "FG_CO2", "FG_CO2", "output_marbl_%4yr_%3dy", "all", .false., "none", 2
"ocean_model", "PH", "PH", "output_marbl_%4yr_%3dy", "all", .false., "none", 2
"ocean_model", "ATM_CO2", "ATM_CO2", "output_marbl_%4yr_%3dy", "all", .false., "none", 2
"ocean_model", "CO2STAR_ALT_CO2", "CO2STAR_ALT_CO2", "output_marbl_%4yr_%3dy", "all", .false., "none", 2
"ocean_model", "DCO2STAR_ALT_CO2", "DCO2STAR_ALT_CO2", "output_marbl_%4yr_%3dy", "all", .false., "none", 2
#"ocean_model", "pCO2SURF_ALT_CO2", "pCO2SURF_ALT_CO2", "output_marbl_%4yr_%3dy", "all", .false., "none", 2
"ocean_model", "DpCO2_ALT_CO2", "DpCO2_ALT_CO2", "output_marbl_%4yr_%3dy", "all", .false., "none", 2
"ocean_model", "FG_ALT_CO2", "FG_ALT_CO2", "output_marbl_%4yr_%3dy", "all", .false., "none", 2
"ocean_model", "PH_ALT_CO2", "PH_ALT_CO2", "output_marbl_%4yr_%3dy", "all", .false., "none", 2
"ocean_model", "ATM_ALT_CO2", "ATM_ALT_CO2", "output_marbl_%4yr_%3dy", "all", .false., "none", 2
"ocean_model", "IRON_FLUX", "IRON_FLUX", "output_marbl_%4yr_%3dy", "all", .false., "none", 2
"ocean_model", "DUST_FLUX", "DUST_FLUX", "output_marbl_%4yr_%3dy", "all", .false., "none", 2
"ocean_model", "NOx_FLUX", "NOx_FLUX", "output_marbl_%4yr_%3dy", "all", .false., "none", 2
"ocean_model", "NHy_FLUX", "NHy_FLUX", "output_marbl_%4yr_%3dy", "all", .false., "none", 2
"ocean_model", "NHx_SURFACE_EMIS", "NHx_SURFACE_EMIS", "output_marbl_%4yr_%3dy", "all", .false., "none", 2
"ocean_model", "zsatcalc", "zsatcalc", "output_marbl_%4yr_%3dy", "all", .false., "none", 2
"ocean_model", "zsatarag", "zsatarag", "output_marbl_%4yr_%3dy", "all", .false., "none", 2
"ocean_model", "O2_ZMIN", "O2_ZMIN", "output_marbl_%4yr_%3dy", "all", .false., "none", 2
"ocean_model", "O2_ZMIN_DEPTH", "O2_ZMIN_DEPTH", "output_marbl_%4yr_%3dy", "all", .false., "none", 2
"ocean_model", "photoC_TOT_zint", "photoC_TOT_zint", "output_marbl_%4yr_%3dy", "all", .false., "none", 2
"ocean_model", "photoC_TOT_zint_100m", "photoC_TOT_zint_100m", "output_marbl_%4yr_%3dy", "all", .false., "none", 2
"ocean_model", "photoC_NO3_TOT_zint", "photoC_NO3_TOT_zint", "output_marbl_%4yr_%3dy", "all", .false., "none", 2
"ocean_model", "photoC_NO3_TOT_zint_100m", "photoC_NO3_TOT_zint_100m", "output_marbl_%4yr_%3dy", "all", .false., "none", 2
"ocean_model", "DOC_prod_zint", "DOC_prod_zint", "output_marbl_%4yr_%3dy", "all", .false., "none", 2
"ocean_model", "DOC_prod_zint_100m", "DOC_prod_zint_100m", "output_marbl_%4yr_%3dy", "all", .false., "none", 2
"ocean_model", "DOC_remin_zint", "DOC_remin_zint", "output_marbl_%4yr_%3dy", "all", .false., "none", 2
"ocean_model", "DOC_remin_zint_100m", "DOC_remin_zint_100m", "output_marbl_%4yr_%3dy", "all", .false., "none", 2
"ocean_model", "DOCr_remin_zint", "DOCr_remin_zint", "output_marbl_%4yr_%3dy", "all", .false., "none", 2
"ocean_model", "DOCr_remin_zint_100m", "DOCr_remin_zint_100m", "output_marbl_%4yr_%3dy", "all", .false., "none", 2
#"ocean_model", "Jint_Ctot", "Jint_Ctot", "output_marbl_%4yr_%3dy", "all", .false., "none", 2
#"ocean_model", "Jint_Ntot", "Jint_Ntot", "output_marbl_%4yr_%3dy", "all", .false., "none", 2
#"ocean_model", "Jint_Ptot", "Jint_Ptot", "output_marbl_%4yr_%3dy", "all", .false., "none", 2
#"ocean_model", "Jint_Sitot", "Jint_Sitot", "output_marbl_%4yr_%3dy", "all", .false., "none", 2
#"ocean_model", "Jint_Fetot", "Jint_Fetot", "output_marbl_%4yr_%3dy", "all", .false., "none", 2
#"ocean_model", "calcToFloor", "calcToFloor", "output_marbl_%4yr_%3dy", "all", .false., "none", 2
"ocean_model", "calcToSed", "calcToSed", "output_marbl_%4yr_%3dy", "all", .false., "none", 2
"ocean_model", "calcToSed_ALT_CO2", "calcToSed_ALT_CO2", "output_marbl_%4yr_%3dy", "all", .false., "none", 2
#"ocean_model", "pocToFloor", "pocToFloor", "output_marbl_%4yr_%3dy", "all", .false., "none", 2
"ocean_model", "pocToSed", "pocToSed", "output_marbl_%4yr_%3dy", "all", .false., "none", 2
"ocean_model", "ponToSed", "ponToSed", "output_marbl_%4yr_%3dy", "all", .false., "none", 2
"ocean_model", "SedDenitrif", "SedDenitrif", "output_marbl_%4yr_%3dy", "all", .false., "none", 2
#"ocean_model", "OtherRemin", "OtherRemin", "output_marbl_%4yr_%3dy", "all", .false., "none", 2
"ocean_model", "popToSed", "popToSed", "output_marbl_%4yr_%3dy", "all", .false., "none", 2
"ocean_model", "bsiToSed", "bsiToSed", "output_marbl_%4yr_%3dy", "all", .false., "none", 2
"ocean_model", "dustToSed", "dustToSed", "output_marbl_%4yr_%3dy", "all", .false., "none", 2
"ocean_model", "pfeToSed", "pfeToSed", "output_marbl_%4yr_%3dy", "all", .false., "none", 2
"ocean_model", "sp_N_lim_surf", "sp_N_lim_surf", "output_marbl_%4yr_%3dy", "all", .false., "none", 2
"ocean_model", "sp_N_lim_Cweight_avg_100m", "sp_N_lim_Cweight_avg_100m", "output_marbl_%4yr_%3dy", "all", .false., "none", 2
"ocean_model", "sp_P_lim_surf", "sp_P_lim_surf", "output_marbl_%4yr_%3dy", "all", .false., "none", 2
"ocean_model", "sp_P_lim_Cweight_avg_100m", "sp_P_lim_Cweight_avg_100m", "output_marbl_%4yr_%3dy", "all", .false., "none", 2
"ocean_model", "sp_Fe_lim_surf", "sp_Fe_lim_surf", "output_marbl_%4yr_%3dy", "all", .false., "none", 2
"ocean_model", "sp_Fe_lim_Cweight_avg_100m", "sp_Fe_lim_Cweight_avg_100m", "output_marbl_%4yr_%3dy", "all", .false., "none", 2
"ocean_model", "sp_light_lim_surf", "sp_light_lim_surf", "output_marbl_%4yr_%3dy", "all", .false., "none", 2
"ocean_model", "sp_light_lim_Cweight_avg_100m", "sp_light_lim_Cweight_avg_100m", "output_marbl_%4yr_%3dy", "all", .false., "none", 2
"ocean_model", "photoC_sp_zint", "photoC_sp_zint", "output_marbl_%4yr_%3dy", "all", .false., "none", 2
"ocean_model", "photoC_sp_zint_100m", "photoC_sp_zint_100m", "output_marbl_%4yr_%3dy", "all", .false., "none", 2
"ocean_model", "photoC_NO3_sp_zint", "photoC_NO3_sp_zint", "output_marbl_%4yr_%3dy", "all", .false., "none", 2
"ocean_model", "graze_sp_zint", "graze_sp_zint", "output_marbl2_%4yr_%3dy", "all", .false., "none", 2
"ocean_model", "graze_sp_zint_100m", "graze_sp_zint_100m", "output_marbl2_%4yr_%3dy", "all", .false., "none", 2
"ocean_model", "graze_sp_poc_zint", "graze_sp_poc_zint", "output_marbl2_%4yr_%3dy", "all", .false., "none", 2
"ocean_model", "graze_sp_poc_zint_100m", "graze_sp_poc_zint_100m", "output_marbl2_%4yr_%3dy", "all", .false., "none", 2
"ocean_model", "graze_sp_doc_zint", "graze_sp_doc_zint", "output_marbl2_%4yr_%3dy", "all", .false., "none", 2
"ocean_model", "graze_sp_doc_zint_100m", "graze_sp_doc_zint_100m", "output_marbl2_%4yr_%3dy", "all", .false., "none", 2
"ocean_model", "graze_sp_zoo_zint", "graze_sp_zoo_zint", "output_marbl2_%4yr_%3dy", "all", .false., "none", 2
"ocean_model", "graze_sp_zoo_zint_100m", "graze_sp_zoo_zint_100m", "output_marbl2_%4yr_%3dy", "all", .false., "none", 2
"ocean_model", "sp_loss_zint", "sp_loss_zint", "output_marbl_%4yr_%3dy", "all", .false., "none", 2
"ocean_model", "sp_loss_zint_100m", "sp_loss_zint_100m", "output_marbl_%4yr_%3dy", "all", .false., "none", 2
"ocean_model", "sp_loss_poc_zint", "sp_loss_poc_zint", "output_marbl_%4yr_%3dy", "all", .false., "none", 2
"ocean_model", "sp_loss_poc_zint_100m", "sp_loss_poc_zint_100m", "output_marbl_%4yr_%3dy", "all", .false., "none", 2
"ocean_model", "sp_loss_doc_zint", "sp_loss_doc_zint", "output_marbl_%4yr_%3dy", "all", .false., "none", 2
"ocean_model", "sp_loss_doc_zint_100m", "sp_loss_doc_zint_100m", "output_marbl_%4yr_%3dy", "all", .false., "none", 2
"ocean_model", "sp_agg_zint", "sp_agg_zint", "output_marbl_%4yr_%3dy", "all", .false., "none", 2
"ocean_model", "sp_agg_zint_100m", "sp_agg_zint_100m", "output_marbl_%4yr_%3dy", "all", .false., "none", 2
"ocean_model", "cocco_N_lim_surf", "cocco_N_lim_surf", "output_marbl_%4yr_%3dy", "all", .false., "none", 2
"ocean_model", "cocco_N_lim_Cweight_avg_100m", "cocco_N_lim_Cweight_avg_100m", "output_marbl_%4yr_%3dy", "all", .false., "none", 2
"ocean_model", "cocco_P_lim_surf", "cocco_P_lim_surf", "output_marbl_%4yr_%3dy", "all", .false., "none", 2
"ocean_model", "cocco_P_lim_Cweight_avg_100m", "cocco_P_lim_Cweight_avg_100m", "output_marbl_%4yr_%3dy", "all", .false., "none", 2
"ocean_model", "cocco_Fe_lim_surf", "cocco_Fe_lim_surf", "output_marbl_%4yr_%3dy", "all", .false., "none", 2
"ocean_model", "cocco_Fe_lim_Cweight_avg_100m", "cocco_Fe_lim_Cweight_avg_100m", "output_marbl_%4yr_%3dy", "all", .false., "none", 2
"ocean_model", "cocco_light_lim_surf", "cocco_light_lim_surf", "output_marbl_%4yr_%3dy", "all", .false., "none", 2
"ocean_model", "cocco_light_lim_Cweight_avg_100m", "cocco_light_lim_Cweight_avg_100m", "output_marbl_%4yr_%3dy", "all", .false., "none", 2
"ocean_model", "photoC_cocco_zint", "photoC_cocco_zint", "output_marbl_%4yr_%3dy", "all", .false., "none", 2
"ocean_model", "photoC_cocco_zint_100m", "photoC_cocco_zint_100m", "output_marbl_%4yr_%3dy", "all", .false., "none", 2
"ocean_model", "photoC_NO3_cocco_zint", "photoC_NO3_cocco_zint", "output_marbl_%4yr_%3dy", "all", .false., "none", 2
"ocean_model", "cocco_CaCO3_form_zint", "cocco_CaCO3_form_zint", "output_marbl_%4yr_%3dy", "all", .false., "none", 2
"ocean_model", "cocco_CaCO3_form_zint_100m", "cocco_CaCO3_form_zint_100m", "output_marbl_%4yr_%3dy", "all", .false., "none", 2
"ocean_model", "graze_cocco_zint", "graze_cocco_zint", "output_marbl2_%4yr_%3dy", "all", .false., "none", 2
"ocean_model", "graze_cocco_zint_100m", "graze_cocco_zint_100m", "output_marbl2_%4yr_%3dy", "all", .false., "none", 2
"ocean_model", "graze_cocco_poc_zint", "graze_cocco_poc_zint", "output_marbl2_%4yr_%3dy", "all", .false., "none", 2
"ocean_model", "graze_cocco_poc_zint_100m", "graze_cocco_poc_zint_100m", "output_marbl2_%4yr_%3dy", "all", .false., "none", 2
"ocean_model", "graze_cocco_doc_zint", "graze_cocco_doc_zint", "output_marbl2_%4yr_%3dy", "all", .false., "none", 2
"ocean_model", "graze_cocco_doc_zint_100m", "graze_cocco_doc_zint_100m", "output_marbl2_%4yr_%3dy", "all", .false., "none", 2
"ocean_model", "graze_cocco_zoo_zint", "graze_cocco_zoo_zint", "output_marbl2_%4yr_%3dy", "all", .false., "none", 2
"ocean_model", "graze_cocco_zoo_zint_100m", "graze_cocco_zoo_zint_100m", "output_marbl2_%4yr_%3dy", "all", .false., "none", 2
"ocean_model", "cocco_loss_zint", "cocco_loss_zint", "output_marbl_%4yr_%3dy", "all", .false., "none", 2
"ocean_model", "cocco_loss_zint_100m", "cocco_loss_zint_100m", "output_marbl_%4yr_%3dy", "all", .false., "none", 2
"ocean_model", "cocco_loss_poc_zint", "cocco_loss_poc_zint", "output_marbl_%4yr_%3dy", "all", .false., "none", 2
"ocean_model", "cocco_loss_poc_zint_100m", "cocco_loss_poc_zint_100m", "output_marbl_%4yr_%3dy", "all", .false., "none", 2
"ocean_model", "cocco_loss_doc_zint", "cocco_loss_doc_zint", "output_marbl_%4yr_%3dy", "all", .false., "none", 2
"ocean_model", "cocco_loss_doc_zint_100m", "cocco_loss_doc_zint_100m", "output_marbl_%4yr_%3dy", "all", .false., "none", 2
"ocean_model", "cocco_agg_zint", "cocco_agg_zint", "output_marbl_%4yr_%3dy", "all", .false., "none", 2
"ocean_model", "cocco_agg_zint_100m", "cocco_agg_zint_100m", "output_marbl_%4yr_%3dy", "all", .false., "none", 2
"ocean_model", "diat_N_lim_surf", "diat_N_lim_surf", "output_marbl_%4yr_%3dy", "all", .false., "none", 2
"ocean_model", "diat_N_lim_Cweight_avg_100m", "diat_N_lim_Cweight_avg_100m", "output_marbl_%4yr_%3dy", "all", .false., "none", 2
"ocean_model", "diat_P_lim_surf", "diat_P_lim_surf", "output_marbl_%4yr_%3dy", "all", .false., "none", 2
"ocean_model", "diat_P_lim_Cweight_avg_100m", "diat_P_lim_Cweight_avg_100m", "output_marbl_%4yr_%3dy", "all", .false., "none", 2
"ocean_model", "diat_Fe_lim_surf", "diat_Fe_lim_surf", "output_marbl_%4yr_%3dy", "all", .false., "none", 2
"ocean_model", "diat_Fe_lim_Cweight_avg_100m", "diat_Fe_lim_Cweight_avg_100m", "output_marbl_%4yr_%3dy", "all", .false., "none", 2
"ocean_model", "diat_SiO3_lim_surf", "diat_SiO3_lim_surf", "output_marbl_%4yr_%3dy", "all", .false., "none", 2
"ocean_model", "diat_SiO3_lim_Cweight_avg_100m", "diat_SiO3_lim_Cweight_avg_100m", "output_marbl_%4yr_%3dy", "all", .false., "none", 2
"ocean_model", "diat_light_lim_surf", "diat_light_lim_surf", "output_marbl_%4yr_%3dy", "all", .false., "none", 2
"ocean_model", "diat_light_lim_Cweight_avg_100m", "diat_light_lim_Cweight_avg_100m", "output_marbl_%4yr_%3dy", "all", .false., "none", 2
"ocean_model", "photoC_diat_zint", "photoC_diat_zint", "output_marbl_%4yr_%3dy", "all", .false., "none", 2
"ocean_model", "photoC_diat_zint_100m", "photoC_diat_zint_100m", "output_marbl_%4yr_%3dy", "all", .false., "none", 2
"ocean_model", "photoC_NO3_diat_zint", "photoC_NO3_diat_zint", "output_marbl_%4yr_%3dy", "all", .false., "none", 2
"ocean_model", "graze_diat_zint", "graze_diat_zint", "output_marbl2_%4yr_%3dy", "all", .false., "none", 2
"ocean_model", "graze_diat_zint_100m", "graze_diat_zint_100m", "output_marbl2_%4yr_%3dy", "all", .false., "none", 2
"ocean_model", "graze_diat_poc_zint", "graze_diat_poc_zint", "output_marbl2_%4yr_%3dy", "all", .false., "none", 2
"ocean_model", "graze_diat_poc_zint_100m", "graze_diat_poc_zint_100m", "output_marbl2_%4yr_%3dy", "all", .false., "none", 2
"ocean_model", "graze_diat_doc_zint", "graze_diat_doc_zint", "output_marbl2_%4yr_%3dy", "all", .false., "none", 2
"ocean_model", "graze_diat_doc_zint_100m", "graze_diat_doc_zint_100m", "output_marbl2_%4yr_%3dy", "all", .false., "none", 2
"ocean_model", "graze_diat_zoo_zint", "graze_diat_zoo_zint", "output_marbl2_%4yr_%3dy", "all", .false., "none", 2
"ocean_model", "graze_diat_zoo_zint_100m", "graze_diat_zoo_zint_100m", "output_marbl2_%4yr_%3dy", "all", .false., "none", 2