/* This input file provides the adjustable run-time parameters for version 6 of
   the Modular Ocean Model (MOM6), a numerical ocean model developed at NOAA-GFDL.
   Where appropriate, parameters use usually given in MKS units.

   This particular file is for the example in double_gyre.

   This MOM_input file typically contains only the non-default values that are
   needed to reproduce this example.  A full list of parameters for this example
   can be found in the corresponding MOM_parameter_doc.all file which is
   generated by the model at run-time. */

REENTRANT_X = True             !   [Boolean] default = True
                                ! If true, the domain is zonally reentrant.
!SYMMETRIC_MEMORY_ = False      !   [Boolean]
                                ! If defined, the velocity point data domain includes
                                ! every face of the thickness points. In other words,
                                ! some arrays are larger than others, depending on where
                                ! they are on the staggered grid.  Also, the starting
                                ! index of the velocity-point arrays is usually 0, not 1.
                                ! This can only be set at compile time.
!STATIC_MEMORY_ = False         !   [Boolean]
                                ! If STATIC_MEMORY_ is defined, the principle variables
                                ! will have sizes that are statically determined at
                                ! compile time.  Otherwise the sizes are not determined
                                ! until run time. The STATIC option is substantially
                                ! faster, but does not allow the PE count to be changed
                                ! at run time.  This can only be set at compile time.
NIHALO = 4                      ! default = 2
                                ! The number of halo points on each side in the
                                ! x-direction.  With STATIC_MEMORY_ this is set as NIHALO_
                                ! in MOM_memory.h at compile time; without STATIC_MEMORY_
                                ! the default is NIHALO_ in MOM_memory.h (if defined) or 2.
NJHALO = 4                      ! default = 2
                                ! The number of halo points on each side in the
                                ! y-direction.  With STATIC_MEMORY_ this is set as NJHALO_
                                ! in MOM_memory.h at compile time; without STATIC_MEMORY_
                                ! the default is NJHALO_ in MOM_memory.h (if defined) or 2.
NIGLOBAL = 600                   !
                                ! The total number of thickness grid points in the
                                ! x-direction in the physical domain. With STATIC_MEMORY_
                                ! this is set in MOM_memory.h at compile time.
NJGLOBAL = 50                   !
                                ! The total number of thickness grid points in the
                                ! y-direction in the physical domain. With STATIC_MEMORY_
                                ! this is set in MOM_memory.h at compile time.
!NIPROC = 2                     !
                                ! The number of processors in the x-direction. With
                                ! STATIC_MEMORY_ this is set in MOM_memory.h at compile time.
!NJPROC = 4                     !
                                ! The number of processors in the x-direction. With
                                ! STATIC_MEMORY_ this is set in MOM_memory.h at compile time.
!LAYOUT = 2, 4                  !
                                ! The processor layout that was acutally used.
IO_LAYOUT = 1, 1                ! default = 0
                                ! The processor layout to be used, or 0,0 to automatically
                                ! set the io_layout to be the same as the layout.

! === module MOM_grid ===
! Parameters providing information about the vertical grid.
NK = 50                          !   [nondim]
                                ! The number of model layers.

! === module MOM_verticalGrid ===
! Parameters providing information about the vertical grid.
USE_REGRIDDING = True           !   [Boolean] default = False
                                ! If True, use the ALE algorithm (regridding/remapping). If False, use the
                                ! layered isopycnal algorithm.
REGRIDDING_COORDINATE_MODE = "Z*" ! default = "LAYER"
                                ! Coordinate mode for vertical regridding.
                                ! Choose among the following possibilities:
                                !  LAYER - Isopycnal or stacked shallow water layers
                                !  Z*    - stetched geopotential z*
                                !  SIGMA - terrain following coordinates
                                !  RHO   - continuous isopycnal
REMAPPING_SCHEME = "PPM_IH4"    ! default = "PLM"
                                ! This sets the reconstruction scheme used
                                ! for vertical remapping for all variables.
                                ! It can be one of the following schemes:
                                ! PCM         (1st-order accurate)
                                ! PLM         (2nd-order accurate)
                                ! PPM_H4      (3rd-order accurate)
                                ! PPM_IH4     (3rd-order accurate)
                                ! PQM_IH4IH3  (4th-order accurate)
                                ! PQM_IH6IH5  (5th-order accurate)
SAVE_INITIAL_CONDS = True       !   [Boolean] default = False
                                ! If true, write the initial conditions to a file given
                                ! by IC_OUTPUT_FILE.
!IC_OUTPUT_FILE = "Initial_state" ! default = "MOM_IC"
                                ! The file into which to write the initial conditions.
!################################################################################################################
! === module MOM_fixed_initialization ===
USE_MARBL_TRACERS = True
                                ! "[Boolean] default = False
                                ! If true, use the MARBL tracer package."
! === module MARBL_tracers ===
MARBL_SETTINGS_FILE = "marbl_in" ! default = "marbl_in"
MARBL_TRACERS_IC_FILE = "InitialConditions_MARBL.nc" ! default = "ecosys_jan_IC_omip_MOM_tx0.66v1_c211008.nc"
                                ! The file in which the MARBL tracers initial values can be found.
MARBL_FESEDFLUX_FILE = "MARBL_FESEDFLUX_FILE.nc" ! default = "fesedflux_total_reduce_oxic_tx0.66v1.c211020.nc"
                                ! The file in which the iron sediment flux forcing field can be found.
MARBL_FEVENTFLUX_FILE = "MARBL_FEVENTFLUX_FILE.nc" ! default = "feventflux_5gmol_tx0.66v1.c211020.nc"
                                ! The file in which the iron vent flux forcing field can be found.

Z_INIT_ALE_REMAPPING = True    !   [Boolean] default = False
                                ! If True, then remap straight to model coordinate from file.
CESM_INPUTDIR='.'
READ_RIV_FLUXES = FALSE

!################################################################################################################

!INIT_LAYERS_FROM_Z_FILE = True  !   [Boolean] default = False
!                                ! If true, intialize the layer thicknesses, temperatures,
!                                ! and salnities from a Z-space file on a latitude-
!                                ! longitude grid.
TEMP_SALT_Z_INIT_FILE = "InitialConditions_MARBL.nc" ! default = "temp_salt_z.nc"
!                                ! The name of the z-space input file used to initialize
!                                ! the layer thicknesses, temperatures and salinities.
!Z_INIT_FILE_PTEMP_VAR = "Temp" ! default = "ptemp"
!                                ! The name of the potential temperature variable in
!                                ! TEMP_SALT_Z_INIT_FILE.
!Z_INIT_FILE_SALT_VAR = "Salt"   ! default = "salt"
!                                ! The name of the salinity variable in
!                                ! TEMP_SALT_Z_INIT_FILE.

! === module MOM ===
ENABLE_THERMODYNAMICS = True    !   [Boolean] default = True
                                ! If true, Temperature and salinity are used as state variables.
USE_EOS = True                  !   [Boolean] default = True
                                ! If true,  density is calculated from temperature and salinity with an equation
                                ! of state.  If USE_EOS is true, ENABLE_THERMODYNAMICS must be true as well.
TS_CONFIG = "file"              !   Method for defining temperature (file or USER)
TS_FILE = "InitialConditions_MARBL.nc"
                                !   If temperature is defined by a file, this is
                                !  the file to use
TEMP_IC_VAR = "Temp"           ! default = "PTEMP"
                                ! The initial condition variable for potential temperature.
SALT_IC_VAR = "Salt"            ! default = "SALT"
                                ! The initial condition variable for salinity.
ADIABATIC = False               !   [Boolean] default = False
                                ! There are no diapycnal mass fluxes if ADIABATIC is
                                ! true. This assumes that KD = KDML = 0.0 and that
                                ! there is no buoyancy forcing, but makes the model
                                ! faster by eliminating subroutine calls.
!DT = 240.0                       !   [s]
DT = 75.0                       !   [s]
                                ! The (baroclinic) dynamics time step.  The time-step that
                                ! is actually used will be an integer fraction of the
                                ! forcing time-step (DT_FORCING in ocean-only mode or the
                                ! coupling timestep in coupled mode.)
!DT_THERM = 960.0                !   [s] default = 1200.0
DT_THERM = 300.0                !   [s] default = 1200.0
                                ! The thermodynamic and tracer advection time step.
                                ! Ideally DT_THERM should be an integer multiple of DT
                                ! and less than the forcing or coupling time-step.
                                ! By default DT_THERM is set to DT.
DTBT_RESET_PERIOD = -1.0        !   [s] default = 2400.0
                                ! The period between recalculations of DTBT (if DTBT <= 0).
                                ! If DTBT_RESET_PERIOD is negative, DTBT is set based
                                ! only on information available at initialization.  If
                                ! dynamic, DTBT will be set at least every forcing time
                                ! step, and if 0, every dynamics time step.  The default is
                                ! set by DT_THERM.  This is only used if SPLIT is true.
ROTATION = "betaplane"          ! default = "2omegasinlat"
                                ! This specifies how the Coriolis parameter is specified:
                                !     2omegasinlat - Use twice the planetary rotation rate
                                !       times the sine of latitude.
                                !     betaplane - Use a beta-plane or f-plane.
                                !     USER - call a user modified routine.
F_0 = 1.0E-04                   !   [s-1] default = 0.0
                                ! The reference value of the Coriolis parameter with the
                                ! betaplane option.
! === module MOM_tracer_registry ===

! === module MOM_tracer_flow_control ===
INPUTDIR = "."              ! default = "."
                                ! The directory in which input files are found.
COORD_CONFIG = "linear"         !
                                ! This specifies how layers are to be defined:
                                !     file - read coordinate information from the file
                                !       specified by (COORD_FILE).
                                !     linear - linear based on interfaces not layesrs.
                                !     ts_ref - use reference temperature and salinity
                                !     ts_range - use range of temperature and salinity
                                !       (T_REF and S_REF) to determine surface density
                                !       and GINT calculate internal densities.
                                !     gprime - use reference density (RHO_0) for surface
                                !       density and GINT calculate internal densities.
                                !     ts_profile - use temperature and salinity profiles
                                !       (read from COORD_FILE) to set layer densities.
                                !     USER - call a user modified routine.
GFS = 0.98                      !   [m s-2] default = 9.8
                                ! The reduced gravity at the free surface.
!GINT = 0.0098                   !   [m s-2]
!                                ! The reduced gravity across internal interfaces.

! === module MOM_grid_init ===
GRID_CONFIG = "cartesian"       !
                                ! A character string that determines the method for
                                ! defining the horizontal grid.  Current options are:
                                !     mosaic - read the grid from a mosaic (supergrid)
                                !              file set by GRID_FILE.
                                !     cartesian - use a (flat) Cartesian grid.
                                !     spherical - use a simple spherical grid.
                                !     mercator - use a Mercator spherical grid.
AXIS_UNITS = "k"                ! default = "degrees"
                                ! The units for the Cartesian axes. Valid entries are:
                                !     degrees - degrees of latitude and longitude
                                !     m - meters
                                !     k - kilometers
SOUTHLAT = -60.0                  !   [k]
                                ! The southern latitude of the domain or the equivalent
                                ! starting value for the y-axis.
LENLAT = 25                     !   [k]
                                ! The latitudinal or y-direction length of the domain.
WESTLON = 0.0                   !   [k] default = 0.0
                                ! The western longitude of the domain or the equivalent
                                ! starting value for the x-axis.
LENLON = 300                     !   [k]
                                ! The longitudinal or x-direction length of the domain.
TOPO_CONFIG = "flat"           !
                                ! This specifies how bathymetry is specified:
                                !     file - read bathymetric information from the file
                                !       specified by (TOPO_FILE).
                                !     flat - flat bottom set to MAXIMUM_DEPTH.
                                !     bowl - an analytically specified bowl-shaped basin
                                !       ranging between MAXIMUM_DEPTH and MINIMUM_DEPTH.
                                !     spoon - a similar shape to 'bowl', but with an vertical
                                !       wall at the southern face.
                                !     halfpipe - a zonally uniform channel with a half-sine
                                !       profile in the meridional direction.
                                !     benchmark - use the benchmark test case topography.
                                !     DOME - use a slope and channel configuration for the
                                !       DOME sill-overflow test case.
                                !     DOME2D - use a shelf and slope configuration for the
                                !       DOME2D gravity current/overflow test case.
                                !     seamount - Gaussian bump for spontaneous motion test case.
                                !     USER - call a user modified routine.
MINIMUM_DEPTH = 1.0             !   [m] default = 0.0
                                ! The minimum depth of the ocean.
MAXIMUM_DEPTH = 4000.0            !   [m]
                                ! The maximum depth of the ocean.
THICKNESS_CONFIG = "uniform"    !
                                ! A string that determines how the initial layer
                                ! thicknesses are specified for a new run:
                                !     file - read interface heights from the file specified
                                !     thickness_file - read thicknesses from the file specified
                                !       by (THICKNESS_FILE).
                                !     uniform - uniform thickness layers evenly distributed
                                !       between the surface and MAXIMUM_DEPTH.
                                !     DOME - use a slope and channel configuration for the
                                !       DOME sill-overflow test case.
                                !     benchmark - use the benchmark test case thicknesses.
                                !     search - search a density profile for the interface
                                !       densities. This is not yet implemented.
                                !     circle_obcs - the circle_obcs test case is used.
                                !     DOME2D - 2D version of DOME initialization.
                                !     adjustment2d - TBD AJA.
                                !     sloshing - TBD AJA.
                                !     seamount - TBD AJA.
                                !     USER - call a user modified routine.
VELOCITY_CONFIG = "file"        !    Method for defining initial layer velocities
                                !  file - read velocity information from file.
                                !  zero - zero velocities everywhere.
                                !  USER - user defined.

VELOCITY_FILE = "InitialConditions_MARBL.nc"
                                !    If the Method for defining initial layer
                                !  velocities is "file", then this is the file
                                !  to use.


! === module MOM_MEKE ===

! === module MOM_lateral_mixing_coeffs ===
ETA_TOLERANCE = 1.0E-12         !   [m] default = 1.0E-10
                                ! The tolerance for the differences between the
                                ! barotropic and baroclinic estimates of the sea surface
                                ! height due to the fluxes through each face.  The total
                                ! tolerance for SSH is 4 times this value.  The default
                                ! is 0.5*NK*ANGSTROM, and this should not be set less x
                                ! than about 10^-15*MAXIMUM_DEPTH.
BOUND_CORIOLIS = True           !   [Boolean] default = False
                                ! If true, the Coriolis terms at u-points are bounded by
                                ! the four estimates of (f+rv)v from the four neighboring
                                ! v-points, and similarly at v-points.  This option would
                                ! have no effect on the SADOURNY Coriolis scheme if it
                                ! were possible to use centered difference thickness fluxes.

! === module MOM_hor_visc ===
LAPLACIAN = True                !   [Boolean] default = False
                                ! If true, use a Laplacian horizontal viscosity.
BIHARMONIC = False              !   [Boolean] default = True
                                ! If true, se a biharmonic horizontal viscosity.
                                ! BIHARMONIC may be used with LAPLACIAN.
KH = 10.0                        !   [m2 s-1] default = 0.0

                                ! The background Laplacian horizontal viscosity.
BOUND_KH = True                 !   [Boolean] default = True
                                ! If true, the Laplacian coefficient is locally limited to be stable.
BETTER_BOUND_KH = True          !   [Boolean] default = True
                                ! If true, the Laplacian coefficient is locally limited to be stable with a
                                ! better bounding than just BOUND_KH.
KH_VEL_SCALE = 0.0              !   [m s-1] default = 0.0
                                ! The velocity scale which is multiplied by the grid
                                ! spacing to calculate the Laplacian viscosity.
                                ! The final viscosity is the largest of this scaled
                                ! viscosity, the Smagorinsky viscosity and KH.
SMAGORINSKY_KH = False          !   [Boolean] default = False
                                ! If true, use a Smagorinsky nonlinear eddy viscosity.
LEITH_KH = False                 !   [Boolean] default = False
                                ! If true, use a Leith nonlinear eddy viscosity.
MODIFIED_LEITH = False           !
SMAG_LAP_CONST = 3.0            !   [nondim] default = 0.0
                                ! The nondimensional Laplacian Smagorinsky constant,
                                ! often 0.15.
LEITH_LAP_CONST = 3.0           !   [nondim] default = 0.0
                                ! The nondimensional Laplacian Smagorinsky constant,
                                ! often 0.15.
BULKMIXEDLAYER = False           !    If defined, use a Kraus-Turner-like bulk
                                !  mixed layer with transitional buffer layers.
                                !  Layers 1 through NKML+NKBL have variable
                                !  densities. There must be at least NKML+NKBL+1
                                !  layers if BULKMIXEDLAYER is defined.
HMIX_FIXED = 0.5                !   [m]
                                ! The prescribed depth over which the near-surface
                                ! viscosity and diffusivity are elevated when the bulk
                                ! mixed layer is not used.
! === module MOM_vert_friction ===
DIRECT_STRESS = False            !   [Boolean] default = False
                                ! If true, the wind stress is distributed over the
                                ! topmost HMIX_STRESS of fluid (like in HYCOM), and KVML
                                ! may be set to a very small value.
HARMONIC_VISC = True            !   [Boolean] default = False
                                ! If true, use the harmonic mean thicknesses for
                                ! calculating the vertical viscosity.
HMIX_FIXED = 0.5               !   [m]
                                ! The prescribed depth over which the near-surface
                                ! viscosity and diffusivity are elevated when the bulk
                                ! mixed layer is not used.
KV = 1.E-5                        !   [m2 s-1]
                                ! The background kinematic viscosity in the interior.
                                ! The molecular value, ~1e-6 m2 s-1, may be used.
KD = 1.E-5                      !    The diapycnal diffusivity of density in the
                                !  interior, in m2 s-1.  Zero or the molecular
                                !  value, ~1e-7 m2 s-1, may be used.
KVML = 1.E-5                    !   [m2 s-1] default = 1.0E-04
                                ! The kinematic viscosity in the mixed layer.  A typical
                                ! value is ~1e-2 m2 s-1. KVML is not used if
                                ! BULKMIXEDLAYER is true.  The default is set by KV.
HBBL = 10.0                     !   [m]
                                ! The thickness of a bottom boundary layer with a
                                ! viscosity of KVBBL if BOTTOMDRAGLAW is not defined, or
                                ! the thickness over which near-bottom velocities are
                                ! averaged for the drag law if BOTTOMDRAGLAW is defined
                                ! but LINEAR_DRAG is not.
MAXVEL = 6.0                    !   [m s-1] default = 3.0E+08
                                ! The maximum velocity allowed before the velocity
                                ! components are truncated.

! === module MOM_set_visc ===
LINEAR_DRAG = True              !   [Boolean] default = False
                                ! If LINEAR_DRAG and BOTTOMDRAGLAW are defined the drag
                                ! law is cdrag*DRAG_BG_VEL*u.
DRAG_BG_VEL = 0.1               !   [m s-1] default = 0.0
                                ! DRAG_BG_VEL is either the assumed bottom velocity (with
                                ! LINEAR_DRAG) or an unresolved  velocity that is
                                ! combined with the resolved velocity to estimate the
                                ! velocity magnitude.  DRAG_BG_VEL is only used when
                                ! BOTTOMDRAGLAW is defined.
BBL_THICK_MIN = 0.1             !   [m] default = 0.0
                                ! The minimum bottom boundary layer thickness that can be
                                ! used with BOTTOMDRAGLAW. This might be
                                ! Kv / (cdrag * drag_bg_vel) to give Kv as the minimum
                                ! near-bottom viscosity.

! === module MOM_barotropic ===
BOUND_BT_CORRECTION = True      !   [Boolean] default = False
                                ! If true, the corrective pseudo mass-fluxes into the
                                ! barotropic solver are limited to values that require
                                ! less than 0.1*MAXVEL to be accommodated.
!BT x-halo = 0                  !
                                ! The barotropic x-halo size that is actually used.
!BT y-halo = 0                  !
                                ! The barotropic y-halo size that is actually used.
BT_PROJECT_VELOCITY = True      !   [Boolean] default = False
                                ! If true, step the barotropic velocity first and project
                                ! out the velocity tendancy by 1+BEBT when calculating the
                                ! transport.  The default (false) is to use a predictor
                                ! continuity step to find the pressure field, and then
                                ! to do a corrector continuity step using a weighted
                                ! average of the old and new velocities, with weights
                                ! of (1-BEBT) and BEBT.
BT_THICK_SCHEME = "FROM_BT_CONT" ! default = "HYBRID"
                                ! A string describing the scheme that is used to set the
                                ! open face areas used for barotropic transport and the
                                ! relative weights of the accelerations. Valid values are:
                                !    ARITHMETIC - arithmetic mean layer thicknesses
                                !    HARMONIC - harmonic mean layer thicknesses
                                !    HYBRID (the default) - use arithmetic means for
                                !       layers above the shallowest bottom, the harmonic
                                !       mean for layers below, and a weighted average for
                                !       layers that straddle that depth
                                !    FROM_BT_CONT - use the average thicknesses kept
                                !       in the h_u and h_v fields of the BT_cont_type
BT_STRONG_DRAG = False          !   [Boolean] default = True
                                ! If true, use a stronger estimate of the retarding
                                ! effects of strong bottom drag, by making it implicit
                                ! with the barotropic time-step instead of implicit with
                                ! the baroclinic time-step and dividing by the number of
                                ! barotropic steps.
BEBT = 0.2                      !   [nondim] default = 0.1
                                ! BEBT determines whether the barotropic time stepping
                                ! uses the forward-backward time-stepping scheme or a
                                ! backward Euler scheme. BEBT is valid in the range from
                                ! 0 (for a forward-backward treatment of nonrotating
                                ! gravity waves) to 1 (for a backward Euler treatment).
                                ! In practice, BEBT must be greater than about 0.05.
DTBT = -0.9                     !   [s or nondim] default = -0.98
                                ! The barotropic time step, in s. DTBT is only used with
                                ! the split explicit time stepping. To set the time step
                                ! automatically based the maximum stable value use 0, or
                                ! a negative value gives the fraction of the stable value.
                                ! Setting DTBT to 0 is the same as setting it to -0.98.
                                ! The value of DTBT that will actually be used is an
                                ! integer fraction of DT, rounding down.

! === module MOM_thickness_diffuse ===

! === module MOM_diabatic_driver ===
! The following parameters are used for diabatic processes.

! === module MOM_tracer_advect ===

! === module MOM_tracer_hor_diff ===

! === module MOM_surface_forcing ===
VARIABLE_WINDS = False          !   [Boolean] default = True